LAMMPS (6 Oct 2016)
#########################################################################################################
# LAMMPS input file template
#########################################################################################################
# equil 100 ps (100ps nvt & 100 ps npt [nequil&nsteps]	mit position restraint (fix spring, fix_modify)
# ff raiteri modified with group crystal and fix spring: fix_modify
#
#########################################################################################################
# Units metal : eV       - ps - angstrom - bar
#       real  : kcal/mol - fs - angstrom - atm
#########################################################################################################

units metal

#########################################################################################################
# Input coordinates and force field
#########################################################################################################

variable inpfile  string system_start.data      # input filename
variable fffile   string ff-ae_caco3.lmp # forcefield filename
variable resfile  string "restart.*"   # restart filename

#########################################################################################################
# Run type
#########################################################################################################

variable minimise equal        1       # Energy minimisation
variable relax    equal        1       # NVT + NPT relaxation
variable shrink   equal        0       # Manual shrink of z (number of 0.1 steps)
variable md       equal        0       # Plain MD
variable plumed   equal        0       # PLUMED (metadynamcis)

#########################################################################################################
# Molecular dynamics parameters
#########################################################################################################

variable ens      equal        2       # ensemble (0=nve, 1=nvt, 2=npt, 3=ber, 4=lang, 5=csvr, 6=vres, 7=csld
variable ts       equal        0.001  # simulation timestep (time units)
variable nequil   equal      10000       # number of equilibration steps
variable nsteps   equal	     10000   # number of MD steps

variable temp_s   equal     300       # starting temperature
variable temp_f   equal     300       # final simulation temperature
variable trel     equal        0.1     # thermostat relaxation time
variable tscale   equal        1       # thermostat relaxation freq - vel rescaling only
variable deltat   equal       10       # maximum temperature change - vel rescaling only

variable npttype  string     tri       # type of NPT (iso, aniso, tri, z...)
variable pres     equal        1.01325 # pressure (NPT runs only)
variable prel     equal        1.0     # barostat relaxation time

#########################################################################################################
# Output parameters
#########################################################################################################

variable ntraj    equal     1000       # trajectory output frequency - all system
variable ntraj_s  equal     -100       # trajectory output frequency - solute only
variable nthermo  equal     1000       # thermodynamic data output frequency
variable dbg_erg  equal        0       # print out the energy in a gulp friendly mode for debugging

#########################################################################################################
# Energy minimisation parameters
#########################################################################################################

variable mtraj    equal       -1       # trajectory output frequency - all system
variable etol     equal     1e-6       # % change in energy
variable ftol     equal     1e-6       # max force threshold (force units)
variable maxiter  equal      100       # max # of iterations

#########################################################################################################
# optional
#########################################################################################################

variable vBalance	equal 0         # enables balance & fix balance

#########################################################################################################
# 3D periodic simulation
#########################################################################################################

boundary p p p

#########################################################################################################
# Atom style - charge/vdw/bonded
#########################################################################################################

atom_style full

#########################################################################################################
# Read the input structure
#########################################################################################################

box tilt large
read_data system_start.data
  triclinic box = (-7.485 -0.720466 -0.711001) to (22.455 25.2083 33.413) with tilt (-14.97 0 0)
  reading atoms ...
  2160 atoms
  scanning bonds ...
  scanning angles ...
  scanning impropers ...
  reading bonds ...
  1296 bonds
  reading angles ...
  1296 angles
  reading impropers ...
  432 impropers
# change_box all triclinic

#########################################################################################################
# Force field
#########################################################################################################

include ff-ae_caco3.lmp
##############################################################################################
#### Atoms' types - mass - charge
##############################################################################################
#@ 8   atom types

# variable O2  equal 1  # water
# variable H2  equal 2  #
variable C4  equal 2  # carbonate
variable O4  equal 3  #
# variable Mg  equal 5  # magnesium
variable Ca  equal 1  # calcium
# variable Sr  equal 7  # strontium
# variable Ba  equal 8  # barium

##############################################################################################
#### Atoms' masses
##############################################################################################

mass  2    12.010
mass  3    16.000
mass  1    40.080

##############################################################################################
#### Atoms' charges
##############################################################################################

set type 2  charge     1.123285
  432 settings made for charge
set type 3  charge    -1.041095
  1296 settings made for charge
set type 1  charge     2.000000
  432 settings made for charge

##############################################################################################
#### Covalent bonds parameters
##############################################################################################
#@  2   bond types

# bond_style  hybrid harmonic morse
# #@ O2 - H2
# bond_coeff   1   harmonic    22.965000      1.0120000
# #@ C4 - O4
# bond_coeff   2   harmonic    20.424650      1.3042000
bond_style  harmonic
bond_coeff   1   20.424650      1.3042000

##############################################################################################
#### Covalent angles parameters
##############################################################################################
#@  2   angle types

# angle_style  hybrid class2   harmonic
# #@ H2 - O2 - H2
# angle_coeff   1   harmonic    1.6456800      113.24000
# #@ O4 - C4 - O4
# angle_coeff   2   class2      120.00000      6.6170000      0.0000000      0.0000000
# angle_coeff   2   class2 bb   12.818000      1.3042000      1.3042000
# angle_coeff   2   class2 ba   1.5331900      1.5331900      1.3042000      1.3042000

angle_style  class2
angle_coeff   1         120.00000      6.6170000      0.0000000      0.0000000
angle_coeff   1    bb   12.818000      1.3042000      1.3042000
angle_coeff   1    ba   1.5331900      1.5331900      1.3042000      1.3042000

##############################################################################################
#### Covalent dihedrals parameters
##############################################################################################
#@  0   dihedral types

##############################################################################################
#### Covalent improper dihedrals parameters
##############################################################################################
#@  1   improper types

improper_style distance
#@  C4-O4-O4-O4
improper_coeff   1     13.647000      360.00000

##############################################################################################
# Pair potentials
##############################################################################################

variable rmin  equal 6.
variable rmax  equal 9.
variable rcoul equal 9.

pair_style hybrid/overlay coul/long 9 buck/mdf 6 9
pair_coeff       *       *             coul/long

##############################################################################################
# Interactions with water
# Water
pair_modify tail yes

# Alkaline earths

# Carbonate

##############################################################################################
# Carbonate - carbonat
pair_coeff     3   3           buck/mdf  63840.199          0.198913      27.89901

##############################################################################################
# Interactions with carbonate -
pair_coeff      1 3             buck/mdf   3161.6335         0.271511       0.

special_bonds lj 0.  0.  0.  coul 0.  0.  0.

#########################################################################################################
# Parameters for reciprocal space electrostatics
#########################################################################################################

kspace_style pppm 1.0e-5
kspace_modify fftbench no

#########################################################################################################
# Thermodynamic output
#########################################################################################################

variable str_basic string 'step time pe temp press'

# MD ensemble (0=nve, 1=nvt, 2=npt, 3=ber, 4=lang, 5=stoc, 6=vres)
variable str_ens string ' '
variable str_ens string 'vol cella cellb cellc cellalpha cellbeta cellgamma'

# variables for a gulp friendly output
variable str_dbg string ' '

thermo_style custom step time pe temp press vol cella cellb cellc cellalpha cellbeta cellgamma   cpu
thermo_modify flush yes
thermo 1000

#########################################################################################################
# Groups' definitions
#########################################################################################################

  group free id > -1
2160 atoms in group free
#  group solute subtract all water
label end_groups

#######################################################
#                groups                               #
#######################################################
group crystal type  1 2 3
2160 atoms in group crystal
#######################################################
#                Turn on position restraints          #
#######################################################
#fix tether crystal spring/self 1000.0
#fix_modify tether energy yes

#########################################################################################################
# Eneergy minimisation
#########################################################################################################

  print "Doing CG minimisation"
Doing CG minimisation
#was tun hier mit ff
  min_style cg
  min_modify line quadratic
  minimize 1e-06 1e-06 100 100
PPPM initialization ...
  G vector (1/distance) = 0.367738
  grid = 40 60 45
  stencil order = 5
  estimated absolute RMS force accuracy = 0.00011523
  estimated relative force accuracy = 8.0023e-06
  3d grid and FFT values/proc = 60030 28800
  2 neighbor list requests
  update every 1 steps, delay 0 steps, check yes
Step Time PotEng Temp Press Volume Cella Cellb Cellc CellAlpha CellBeta CellGamma CPU
0            0   -12934.187            0   -10952.476    26490.741    29.940001    29.939997    34.124001           90           90    120.00001            0
Loop time of 0.086457 on 4 procs for 2 steps with 2160 atoms

Minimization stats:
  Stopping criterion = energy tolerance
  Energy initial, next-to-last, final =
  Force two-norm initial, final = 11.3185 0.171434
  Force max component initial, final = 0.32974 0.00919865
  Final line search alpha, max atom move = 1 0.00919865
  Iterations, force evaluations = 2 4

  reset_timestep 0
label end_minimise

#########################################################################################################
# Timestep in ps
#########################################################################################################

timestep 0.001

#########################################################################################################
# Restart file
#########################################################################################################

restart 100000 restart.1 restart.2

#########################################################################################################
# Trajectory output - whole system and solute only
#########################################################################################################

dump 1 all dcd 1000 trajectory.0.dcd
dump_modify 1 unwrap yes

#########################################################################################################
# Remove the centre of mass motion
#########################################################################################################

fix com free momentum 1000 linear 1 1 1

#fix 	shake	all	shake 0.0001	20 	1 	b 1 a 1

#########################################################################################################
# Relax structure NVT + NPT
#########################################################################################################

  print "Doing NVT-NPT relaxation"
Doing NVT-NPT relaxation
  velocity free create 300 18497 mom yes dist gaussian
  fix nve free nve
  fix md free temp/csvr 300 300 0.1 23423
  run 10000
PPPM initialization ...
  G vector (1/distance) = 0.367738
  grid = 40 60 45
  stencil order = 5
  estimated absolute RMS force accuracy = 0.00011523
  estimated relative force accuracy = 8.0023e-06
  3d grid and FFT values/proc = 60030 28800
  2 neighbor list requests
  update every 1 steps, delay 10 steps, check yes
Step Time PotEng Temp Press Volume Cella Cellb Cellc CellAlpha CellBeta CellGamma CPU
0            0   -12935.117          300   -15963.775    26490.741    29.940001    29.939997    34.124001           90           90    120.00001            0
Averages over the last 6 of 11 rows, steps 5000 to 10000:
PotEng Temp Press Volume Cella Cellb Cellc CellAlpha CellBeta CellGamma
-12851.1 301.245 -14312.6 26490.7 29.94 29.94 34.124 90 90 120
Loop time of 164.672 on 4 procs for 10000 steps with 2160 atoms

  unfix nve
  unfix md

  velocity free create 300 29322 mom yes dist gaussian
  fix md free npt temp 300 300 0.1 tri 1.01325 1.01325 1 tchain 5 pchain 5 mtk yes
  run 10000
PPPM initialization ...
  G vector (1/distance) = 0.367738
  grid = 40 60 45
  stencil order = 5
  estimated absolute RMS force accuracy = 0.00011523
  estimated relative force accuracy = 8.0023e-06
  3d grid and FFT values/proc = 60030 28800
Step Time PotEng Temp Press Volume Cella Cellb Cellc CellAlpha CellBeta CellGamma CPU
10000           10   -12849.491          300   -13379.911    26490.741    29.940001    29.939997    34.124001           90           90    120.00001            0
Averages over the last 6 of 11 rows, steps 15000 to 20000:
PotEng Temp Press Volume Cella Cellb Cellc CellAlpha CellBeta CellGamma
-12854.7 299.48 -309.404 26153.5 29.6168 29.6069 34.4431 89.9938 90.0011 120.008
Loop time of 231.911 on 4 procs for 10000 steps with 2160 atoms

  unfix md
  reset_timestep 0
  write_restart final_restart.0
PPPM initialization ...
  G vector (1/distance) = 0.368041
  grid = 40 54 45
  stencil order = 5
  estimated absolute RMS force accuracy = 0.000113912
  estimated relative force accuracy = 7.91073e-06
  3d grid and FFT values/proc = 54810 25920
  write_data final_data.0
PPPM initialization ...
  G vector (1/distance) = 0.368041
  grid = 40 54 45
  stencil order = 5
  estimated absolute RMS force accuracy = 0.000113912
  estimated relative force accuracy = 7.91073e-06
  3d grid and FFT values/proc = 54810 25920
  quit
